
Nanome Inc. SDF Saver. Edited/Viewed in Nanome version 1.24.6 Edited 2025-12-02

  0  0  0     0  0            999 V3000
M  V30 BEGIN CTAB
M  V30 COUNTS 333 335 0 0 0
M  V30 BEGIN ATOM
M  V30 1 N -13.6202 -12.844 -12.8497 0 CHG=1
M  V30 2 C -12.1712 -12.844 -12.8497 0 
M  V30 3 C -11.6481 -11.4147 -12.8497 0 
M  V30 4 O -10.7555 -11.0791 -12.0745 0 
M  V30 5 C -11.6222 -13.5554 -14.0818 0 
M  V30 6 H -13.9602 -12.3631 -12.0169 0 
M  V30 7 H -13.9602 -13.8057 -12.8497 0 
M  V30 8 H -13.9602 -12.3632 -13.6825 0 
M  V30 9 H -11.8483 -13.359 -11.9692 0 
M  V30 10 H -11.9442 -13.0416 -14.9634 0 
M  V30 11 H -11.9843 -14.5621 -14.1033 0 
M  V30 12 H -10.5529 -13.5617 -14.0432 0 
M  V30 13 N -12.2072 -10.5736 -13.7227 0 
M  V30 14 C -11.7971 -9.1873 -13.8206 0 
M  V30 15 C -11.9512 -8.4997 -12.4715 0 
M  V30 16 O -11.0442 -7.8032 -12.0213 0 
M  V30 17 C -12.6441 -8.435 -14.8416 0 
M  V30 18 H -12.9187 -10.9048 -14.3171 0 
M  V30 19 H -10.7731 -9.1746 -14.1306 0 
M  V30 20 H -13.6686 -8.4468 -14.5331 0 
M  V30 21 H -12.554 -8.9076 -15.7973 0 
M  V30 22 H -12.304 -7.4228 -14.9107 0 
M  V30 23 N -13.104 -8.6976 -11.828 0 
M  V30 24 C -13.3725 -8.0983 -10.5363 0 
M  V30 25 C -12.2994 -8.5063 -9.5371 0 
M  V30 26 O -11.7687 -7.6644 -8.816 0 
M  V30 27 C -14.7264 -8.5448 -9.9948 0 
M  V30 28 H -13.7915 -9.2671 -12.243 0 
M  V30 29 H -13.3753 -7.0364 -10.6673 0 
M  V30 30 H -14.7253 -9.6067 -9.8632 0 
M  V30 31 H -15.4951 -8.272 -10.6873 0 
M  V30 32 H -14.9087 -8.069 -9.0539 0 
M  V30 33 N -11.9818 -9.802299 -9.4969 0 
M  V30 34 C -10.9761 -10.3165 -8.5892 0 
M  V30 35 C -9.6514 -9.6028 -8.8178 0 
M  V30 36 O -9.0045 -9.1722 -7.8656 0 
M  V30 37 C -10.7583 -11.8109 -8.8006 0 
M  V30 38 H -12.4442 -10.4268 -10.1014 0 
M  V30 39 H -11.3239 -10.1463 -7.5917 0 
M  V30 40 H -10.4104 -11.9831 -9.7977 0 
M  V30 41 H -11.6814 -12.3307 -8.6502 0 
M  V30 42 H -10.0303 -12.1675 -8.1022 0 
M  V30 43 N -9.2499 -9.4791 -10.085 0 
M  V30 44 C -8.0074 -8.8201 -10.4336 0 
M  V30 45 C -7.9971 -7.3999 -9.8866 0 
M  V30 46 O -7.013 -6.9723 -9.2848 0 
M  V30 47 C -7.8276 -8.7524 -11.9465 0 
M  V30 48 H -9.8143 -9.8462 -10.8033 0 
M  V30 49 H -7.2088 -9.3898 -10.0064 0 
M  V30 50 H -8.6255 -8.183 -12.3754 0 
M  V30 51 H -7.8383 -9.7427 -12.3516 0 
M  V30 52 H -6.8928 -8.2841 -12.174 0 
M  V30 53 N -9.095 -6.6696 -10.0974 0 
M  V30 54 C -9.2087 -5.3051 -9.6262 0 
M  V30 55 C -8.9948 -5.251 -8.1206 0 
M  V30 56 O -8.2445 -4.4109 -7.6304 0 
M  V30 57 C -10.5881 -4.7308 -9.9341 0 
M  V30 58 H -9.849 -7.0705 -10.5874 0 
M  V30 59 H -8.4622 -4.728 -10.1298 0 
M  V30 60 H -11.3352 -5.3074 -9.4298 0 
M  V30 61 H -10.7619 -4.7655 -10.9889 0 
M  V30 62 H -10.6342 -3.7163 -9.5979 0 
M  V30 63 N -9.6557 -6.1524 -7.3899 0 
M  V30 64 C -9.5359 -6.2034 -5.9469 0 
M  V30 65 C -8.0784 -6.3819 -5.5494 0 
M  V30 66 O -7.5858 -5.6835 -4.6692 0 
M  V30 67 C -10.3347 -7.3674 -5.3707 0 
M  V30 68 H -10.2407 -6.8006 -7.8449 0 
M  V30 69 H -9.9201 -5.2835 -5.5587 0 
M  V30 70 H -9.9536 -8.2882 -5.7576 0 
M  V30 71 H -11.3643 -7.2638 -5.6446 0 
M  V30 72 H -10.2486 -7.3655 -4.3041 0 
M  V30 73 N -7.3928 -7.324 -6.2015 0 
M  V30 74 C -5.9968 -7.5911 -5.9156 0 
M  V30 75 C -5.1742 -6.3228 -6.0909 0 
M  V30 76 O -4.3594 -5.9868 -5.237 0 
M  V30 77 C -5.4393 -8.6587 -6.8509 0 
M  V30 78 H -7.8476 -7.8517 -6.897 0 
M  V30 79 H -5.9344 -7.9378 -4.905 0 
M  V30 80 H -5.5006 -8.314 -7.862 0 
M  V30 81 H -6.0092 -9.5582 -6.7456 0 
M  V30 82 H -4.417 -8.8529 -6.6016 0 
M  V30 83 N -5.3898 -5.62 -7.2046 0 
M  V30 84 C -4.6726 -4.3942 -7.4911 0 
M  V30 85 C -4.8735 -3.3961 -6.3601 0 
M  V30 86 O -3.9131 -2.7921 -5.884 0 
M  V30 87 C -5.1641 -3.7579 -8.7869 0 
M  V30 88 H -6.0584 -5.9429 -7.8517 0 
M  V30 89 H -3.6361 -4.6415 -7.5902 0 
M  V30 90 H -6.1992 -3.51 -8.6922 0 
M  V30 91 H -5.0356 -4.4489 -9.5938 0 
M  V30 92 H -4.6 -2.8707 -8.9848 0 
M  V30 93 N -6.1247 -3.2218 -5.9315 0 
M  V30 94 C -6.4479 -2.2997 -4.8606 0 
M  V30 95 C -5.6577 -2.6531 -3.6104 0 
M  V30 96 O -5.0686 -1.7796 -2.9774 0 
M  V30 97 C -7.9105 -1.2732 -1.9006 0 
M  V30 98 C -7.8766 1.0466 1.1858 0 
M  V30 99 C -8.9903 1.8464 0.9437 0 
M  V30 100 C -7.6628 -0.0384 0.3145 0 
M  V30 101 C -9.8196 1.5934 -0.1618 0 
M  V30 102 C -8.4179 -0.2488 -0.8761 0 
M  V30 103 C -9.5211 0.5751 -1.0815 0 
M  V30 104 C -6.9297 1.4098 2.2363 0 
M  V30 105 C -6.1365 1.8248 3.0529 0 
M  V30 106 C -8.5691 -1.3981 -3.3076 0 
M  V30 107 C -7.9656 -2.4364 -4.351 0 
M  V30 108 H -6.8506 -3.7348 -6.3546 0 
M  V30 109 N -5.6465 -3.9419 -3.2517 0 
M  V30 110 C -4.9338 -4.4056 -2.083 0 
M  V30 111 C -3.461 -4.0224 -2.1787 0 
M  V30 112 O -2.8872 -3.5082 -1.2222 0 
M  V30 113 C -5.0245 -5.9211 -1.9501 0 
M  V30 114 H -6.1396 -4.593 -3.8022 0 
M  V30 115 H -5.3836 -3.9485 -1.2253 0 
M  V30 116 H -4.5756 -6.3825 -2.8054 0 
M  V30 117 H -6.053 -6.2139 -1.8871 0 
M  V30 118 H -4.5101 -6.2353 -1.0639 0 
M  V30 119 N -2.8551 -4.2755 -3.3411 0 
M  V30 120 C -1.4599 -3.9555 -3.5605 0 
M  V30 121 C -1.2145 -2.473 -3.3105 0 
M  V30 122 O -0.2654 -2.1061 -2.6229 0 
M  V30 123 C -1.0397 -4.2758 -4.9911 0 
M  V30 124 H -3.3707 -4.6898 -4.0697 0 
M  V30 125 H -0.8832 -4.5482 -2.8802 0 
M  V30 126 H -1.6151 -3.6844 -5.6721 0 
M  V30 127 H -1.2096 -5.3132 -5.188 0 
M  V30 128 H -0.0002 -4.0544 -5.1157 0 
M  V30 129 N -2.0778 -1.6242 -3.8744 0 
M  V30 130 C -1.9541 -0.1873 -3.7115 0 
M  V30 131 C -1.9661 0.1737 -2.2328 0 
M  V30 132 O -1.1301 0.9532 -1.7775 0 
M  V30 133 C -3.1061 0.5421 -4.3932 0 
M  V30 134 H -2.8196 -1.9822 -4.4144 0 
M  V30 135 H -1.0293 0.111 -4.1614 0 
M  V30 136 H -4.0306 0.2464 -3.945 0 
M  V30 137 H -3.1185 0.2976 -5.4337 0 
M  V30 138 H -2.9772 1.5987 -4.2778 0 
M  V30 139 N -2.914 -0.3939 -1.4842 0 
M  V30 140 C -3.0315 -0.1287 -0.0669 0 
M  V30 141 C -1.7282 -0.477 0.6389 0 
M  V30 142 O -1.2307 0.3052 1.4464 0 
M  V30 143 C -4.1493 -0.9594 0.5546 0 
M  V30 144 H -3.5535 -1.0103 -1.9097 0 
M  V30 145 H -3.2522 0.9104 0.0517 0 
M  V30 146 H -3.9281 -1.9991 0.4367 0 
M  V30 147 H -5.0735 -0.7332 0.067 0 
M  V30 148 H -4.2295 -0.7287 1.5958 0 
M  V30 149 N -1.1786 -1.6541 0.3332 0 
M  V30 150 C 0.0607 -2.0999 0.9363 0 
M  V30 151 C 1.1647 -1.0833 0.6794 0 
M  V30 152 O 1.894 -0.7137 1.5984 0 
M  V30 153 C 0.5023 -3.4396 0.3576 0 
M  V30 154 H -1.6278 -2.2372 -0.3203 0 
M  V30 155 H -0.1118 -2.204 1.9872 0 
M  V30 156 H 0.6746 -3.3349 -0.6932 0 
M  V30 157 H -0.2637 -4.1686 0.5225 0 
M  V30 158 H 1.405 -3.7555 0.8373 0 
M  V30 159 N 1.2815 -0.6305 -0.5703 0 
M  V30 160 C 2.291 0.3403 -0.9418 0 
M  V30 161 C 2.1488 1.5946 -0.0915 0 
M  V30 162 O 3.1342 2.1034 0.4358 0 
M  V30 163 C 2.1576 0.7374 -2.4081 0 
M  V30 164 H 3.2477 -0.1116 -0.7821 0 
M  V30 165 H 1.2008 1.1894 -2.5691 0 
M  V30 166 H 2.2489 -0.1334 -3.0232 0 
M  V30 167 H 2.929 1.4347 -2.6604 0 
M  V30 168 N 0.917 2.0909 0.0382 0 
M  V30 169 C 0.6485 3.2817 0.8221 0 
M  V30 170 C 1.1398 3.0877 2.2518 0 
M  V30 171 O 1.8028 3.9621 2.8029 0 
M  V30 172 C -0.8448 3.5875 0.8655 0 
M  V30 173 H 0.1684 1.6359 -0.4116 0 
M  V30 174 H 1.1624 4.0979 0.3585 0 
M  V30 175 H -1.3615 2.7722 1.3286 0 
M  V30 176 H -1.2095 3.7197 -0.1317 0 
M  V30 177 H -1.01 4.4813 1.4287 0 
M  V30 178 N 0.8079 1.9402 2.8443 0 
M  V30 179 C 1.2139 1.6359 4.2038 0 
M  V30 180 C 2.7287 1.709 4.3259 0 
M  V30 181 O 3.2508 2.3174 5.2591 0 
M  V30 182 C 0.7659 0.2388 4.6115 0 
M  V30 183 H 0.274 1.2811 2.3467 0 
M  V30 184 H 0.7522 2.3577 4.8484 0 
M  V30 185 H 1.2258 -0.4848 3.9696 0 
M  V30 186 H -0.2984 0.163 4.526 0 
M  V30 187 H 1.0567 0.0513 5.6242 0 
M  V30 188 N 3.4358 1.088 3.378 0 
M  V30 189 C 4.884 1.0837 3.3821 0 
M  V30 190 C 5.4117 2.5111 3.3786 0 
M  V30 191 O 6.3033 2.8454 4.1562 0 
M  V30 192 C 5.4342 0.3649 2.1541 0 
M  V30 193 H 2.9575 0.6195 2.656 0 
M  V30 194 H 5.2035 0.5693 4.2647 0 
M  V30 195 H 5.1161 0.8764 1.2698 0 
M  V30 196 H 5.0691 -0.6407 2.1353 0 
M  V30 197 H 6.5034 0.3555 2.1956 0 
M  V30 198 N 4.8568 3.3493 2.503 0 
M  V30 199 C 5.2714 4.7339 2.4012 0 
M  V30 200 C 5.1156 5.427 3.7483 0 
M  V30 201 O 6.0229 6.1224 4.1957 0 
M  V30 202 C 4.4311 5.4868 1.375 0 
M  V30 203 H 4.1448 3.0193 1.9084 0 
M  V30 204 H 6.2964 4.7426 2.0935 0 
M  V30 205 H 3.4056 5.479 1.6807 0 
M  V30 206 H 4.5226 5.0109 0.4207 0 
M  V30 207 H 4.775 6.4972 1.3033 0 
M  V30 208 N 3.9629 5.2346 4.3899 0 
M  V30 209 C 3.6903 5.8402 5.6777 0 
M  V30 210 C 4.76 5.43 6.6825 0 
M  V30 211 O 5.2902 6.2739 7.3994 0 
M  V30 212 C -1.6739 5.0159 7.5892 0 
M  V30 213 C -3.0626 5.2288 7.6153 0 
M  V30 214 C -1.1459 4.1223 6.6702 0 
M  V30 215 C -3.9347 4.5623 6.7287 0 
M  V30 216 C -2.0526 3.4469 5.7785 0 
M  V30 217 C -3.4413 3.6585 5.7889 0 
M  V30 218 C -4.3378 2.9813 4.8564 0 
M  V30 219 C -5.1065 2.4542 4.0821 0 
M  V30 220 C 0.3241 3.7734 6.5465 0 
M  V30 221 C 1.6426 4.4011 7.0883 0 
M  V30 222 C 2.1547 5.504 6.1483 0 
M  V30 223 H 3.2753 4.6644 3.9753 0 
M  V30 224 N 5.0751 4.1341 6.7243 0 
M  V30 225 C 6.0763 3.6201 7.638 0 
M  V30 226 C 7.4027 4.3282 7.4093 0 
M  V30 227 O 8.0472 4.7587 8.362 0 
M  V30 228 C 6.2907 2.1242 7.4317 0 
M  V30 229 H 4.6144 3.509 6.1181 0 
M  V30 230 H 5.725 3.7946 8.634 0 
M  V30 231 H 6.6407 1.948 6.4367 0 
M  V30 232 H 5.3656 1.6075 7.5807 0 
M  V30 233 H 7.0155 1.7677 8.1338 0 
M  V30 234 N 7.8079 4.4476 6.1431 0 
M  V30 235 C 9.0528 5.101 5.7965 0 
M  V30 236 C 9.0666 6.5241 6.3398 0 
M  V30 237 O 10.0489 6.95 6.9412 0 
M  V30 238 C 9.2375 5.1635 4.2834 0 
M  V30 239 H 9.8486 4.5296 6.2274 0 
M  V30 240 H 8.4424 5.7348 3.8514 0 
M  V30 241 H 9.2243 4.1722 3.8811 0 
M  V30 242 H 10.1738 5.628 4.0574 0 
M  V30 243 N 7.9713 7.2542 6.1223 0 
M  V30 244 C 7.8612 8.6242 6.5889 0 
M  V30 245 C 8.0696 8.6818 8.0952 0 
M  V30 246 O 8.8222 9.5198 8.5867 0 
M  V30 247 C 6.4846 9.2002 6.2752 0 
M  V30 248 H 7.2163 6.8529 5.6333 0 
M  V30 249 H 8.6098 9.1986 6.0863 0 
M  V30 250 H 5.7342 8.6268 6.7782 0 
M  V30 251 H 6.3135 9.1633 5.2201 0 
M  V30 252 H 6.4381 10.2169 6.6078 0 
M  V30 253 N 7.4057 7.7852 8.8291 0 
M  V30 254 C 7.5196 7.7366 10.2695 0 
M  V30 255 C 8.9772 7.5545 10.6729 0 
M  V30 256 O 9.4715 8.2556 11.5527 0 
M  V30 257 C 6.7156 6.5764 10.8481 0 
M  V30 258 H 6.8207 7.1365 8.3742 0 
M  V30 259 H 7.138 8.6594 10.6544 0 
M  V30 260 H 7.0957 5.6533 10.4638 0 
M  V30 261 H 5.6882 6.6809 10.5689 0 
M  V30 262 H 6.7979 6.5809 11.9143 0 
M  V30 263 N 9.6619 6.6091 10.0248 0 
M  V30 264 C 11.0554 6.3385 10.3161 0 
M  V30 265 C 11.8824 7.6037 10.1374 0 
M  V30 266 O 12.6972 7.9402 10.9937 0 
M  V30 267 C 11.6123 5.2664 9.3855 0 
M  V30 268 H 9.2069 6.0815 9.3294 0 
M  V30 269 H 11.1133 5.9951 11.3278 0 
M  V30 270 H 11.5552 5.6082 8.3732 0 
M  V30 271 H 11.0393 4.3691 9.4919 0 
M  V30 272 H 12.6332 5.0697 9.6385 0 
M  V30 273 N 11.6702 8.3038 9.0207 0 
M  V30 274 C 12.3939 9.5259 8.7339 0 
M  V30 275 C 12.1934 10.5292 9.8607 0 
M  V30 276 O 13.154 11.1303 10.3365 0 
M  V30 277 C 11.9076 10.1602 7.4352 0 
M  V30 278 H 11.0027 7.9804 8.3733 0 
M  V30 279 H 13.4294 9.2734 8.6395 0 
M  V30 280 H 10.8721 10.4134 7.5278 0 
M  V30 281 H 12.0346 9.4668 6.6302 0 
M  V30 282 H 12.4749 11.0454 7.2363 0 
M  V30 283 N 10.9406 10.708 10.286 0 
M  V30 284 C 10.6188 11.635 11.3522 0 
M  V30 285 C 11.4041 11.2817 12.6072 0 
M  V30 286 O 11.9941 12.1558 13.2384 0 
M  V30 287 C 9.1321 11.5902 11.6886 0 
M  V30 288 H 10.2144 10.1952 9.863 0 
M  V30 289 H 10.8769 12.6171 11.0151 0 
M  V30 290 H 8.8722 10.6086 12.026 0 
M  V30 291 H 8.5615 11.8301 10.8158 0 
M  V30 292 H 8.9194 12.3005 12.4601 0 
M  V30 293 N 11.4096 9.996 12.9668 0 
M  V30 294 C 12.1201 9.5325 14.1415 0 
M  V30 295 C 13.5911 9.9114 14.0465 0 
M  V30 296 O 14.101 10.4222 15.0413 0 
M  V30 297 O 14.1597 9.6785 12.9822 0 
M  V30 298 C 12.0234 8.0168 14.279 0 
M  V30 299 H 10.9167 9.344 12.418 0 
M  V30 300 H 11.6703 9.9957 14.9947 0 
M  V30 301 H 12.4728 7.5519 13.4265 0 
M  V30 302 H 10.9946 7.7292 14.3412 0 
M  V30 303 H 12.5349 7.7058 15.1659 0 
M  V30 304 H -7.894 -2.2601 -1.4245 0 
M  V30 305 H -6.8844 -0.9497 -2.0616 0 
M  V30 306 H -9.2182 2.6835 1.5995 0 
M  V30 307 H -6.8734 -0.7375 0.5489 0 
M  V30 308 H -10.6865 2.2288 -0.3308 0 
M  V30 309 H -10.1532 0.4589 -1.9572 0 
M  V30 310 H -8.6145 -0.4094 -3.7782 0 
M  V30 311 H -9.6161 -1.6918 -3.1525 0 
M  V30 312 H -8.6115 -2.3947 -5.2396 0 
M  V30 313 H -8.1301 -3.431 -3.9239 0 
M  V30 314 H 0.6642 -0.9658 -1.2593 0 
M  V30 315 H -1.0324 5.5419 8.2891 0 
M  V30 316 H -3.4766 5.9282 8.3394 0 
M  V30 317 H -5.0016 4.7646 6.7862 0 
M  V30 318 H -1.6469 2.7409 5.0538 0 
M  V30 319 H 0.4328 3.911 5.4725 0 
M  V30 320 H 0.375 2.7138 6.8295 0 
M  V30 321 H 2.3972 3.6144 7.1556 0 
M  V30 322 H 1.4903 4.786 8.1025 0 
M  V30 323 H 1.7529 6.3895 6.6684 0 
M  V30 324 H 1.5781 5.4814 5.2124 0 
M  V30 325 H 7.2449 4.0798 5.425 0 
M  V30 326 C -6.3018 -0.8337 -5.3003 0 
M  V30 327 H -5.269 -0.6221 -5.6218 0 
M  V30 328 H -6.5905 -0.1467 -4.4748 0 
M  V30 329 H -6.9611 -0.6349 -6.1718 0 
M  V30 330 C 3.4443 7.3509 5.5775 0 
M  V30 331 H 4.2592 7.8514 5.0178 0 
M  V30 332 H 3.3507 7.8109 6.5831 0 
M  V30 333 H 2.494 7.5235 5.0313 0 
M  V30 END ATOM
M  V30 BEGIN BOND
M  V30 1 1 1 2
M  V30 2 1 2 3
M  V30 3 2 3 4
M  V30 4 1 2 5
M  V30 5 1 1 6
M  V30 6 1 1 7
M  V30 7 1 1 8
M  V30 8 1 2 9
M  V30 9 1 5 10
M  V30 10 1 5 11
M  V30 11 1 5 12
M  V30 12 1 3 13
M  V30 13 1 13 14
M  V30 14 1 14 15
M  V30 15 2 15 16
M  V30 16 1 14 17
M  V30 17 1 13 18
M  V30 18 1 14 19
M  V30 19 1 17 20
M  V30 20 1 17 21
M  V30 21 1 17 22
M  V30 22 1 15 23
M  V30 23 1 23 24
M  V30 24 1 24 25
M  V30 25 2 25 26
M  V30 26 1 24 27
M  V30 27 1 23 28
M  V30 28 1 24 29
M  V30 29 1 27 30
M  V30 30 1 27 31
M  V30 31 1 27 32
M  V30 32 1 25 33
M  V30 33 1 33 34
M  V30 34 1 34 35
M  V30 35 2 35 36
M  V30 36 1 34 37
M  V30 37 1 33 38
M  V30 38 1 34 39
M  V30 39 1 37 40
M  V30 40 1 37 41
M  V30 41 1 37 42
M  V30 42 1 35 43
M  V30 43 1 43 44
M  V30 44 1 44 45
M  V30 45 2 45 46
M  V30 46 1 44 47
M  V30 47 1 43 48
M  V30 48 1 44 49
M  V30 49 1 47 50
M  V30 50 1 47 51
M  V30 51 1 47 52
M  V30 52 1 45 53
M  V30 53 1 53 54
M  V30 54 1 54 55
M  V30 55 2 55 56
M  V30 56 1 54 57
M  V30 57 1 53 58
M  V30 58 1 54 59
M  V30 59 1 57 60
M  V30 60 1 57 61
M  V30 61 1 57 62
M  V30 62 1 55 63
M  V30 63 1 63 64
M  V30 64 1 64 65
M  V30 65 2 65 66
M  V30 66 1 64 67
M  V30 67 1 63 68
M  V30 68 1 64 69
M  V30 69 1 67 70
M  V30 70 1 67 71
M  V30 71 1 67 72
M  V30 72 1 65 73
M  V30 73 1 73 74
M  V30 74 1 74 75
M  V30 75 2 75 76
M  V30 76 1 74 77
M  V30 77 1 73 78
M  V30 78 1 74 79
M  V30 79 1 77 80
M  V30 80 1 77 81
M  V30 81 1 77 82
M  V30 82 1 75 83
M  V30 83 1 83 84
M  V30 84 1 84 85
M  V30 85 2 85 86
M  V30 86 1 84 87
M  V30 87 1 83 88
M  V30 88 1 84 89
M  V30 89 1 87 90
M  V30 90 1 87 91
M  V30 91 1 87 92
M  V30 92 1 85 93
M  V30 93 1 93 94
M  V30 94 1 94 95
M  V30 95 2 95 96
M  V30 96 2 98 99
M  V30 97 1 98 100
M  V30 98 1 99 101
M  V30 99 1 97 102
M  V30 100 2 100 102
M  V30 101 2 101 103
M  V30 102 1 102 103
M  V30 103 1 98 104
M  V30 104 3 104 105
M  V30 105 1 97 106
M  V30 106 1 94 107
M  V30 107 1 106 107
M  V30 108 1 93 108
M  V30 109 1 95 109
M  V30 110 1 109 110
M  V30 111 1 110 111
M  V30 112 2 111 112
M  V30 113 1 110 113
M  V30 114 1 109 114
M  V30 115 1 110 115
M  V30 116 1 113 116
M  V30 117 1 113 117
M  V30 118 1 113 118
M  V30 119 1 111 119
M  V30 120 1 119 120
M  V30 121 1 120 121
M  V30 122 2 121 122
M  V30 123 1 120 123
M  V30 124 1 119 124
M  V30 125 1 120 125
M  V30 126 1 123 126
M  V30 127 1 123 127
M  V30 128 1 123 128
M  V30 129 1 121 129
M  V30 130 1 129 130
M  V30 131 1 130 131
M  V30 132 2 131 132
M  V30 133 1 130 133
M  V30 134 1 129 134
M  V30 135 1 130 135
M  V30 136 1 133 136
M  V30 137 1 133 137
M  V30 138 1 133 138
M  V30 139 1 131 139
M  V30 140 1 139 140
M  V30 141 1 140 141
M  V30 142 2 141 142
M  V30 143 1 140 143
M  V30 144 1 139 144
M  V30 145 1 140 145
M  V30 146 1 143 146
M  V30 147 1 143 147
M  V30 148 1 143 148
M  V30 149 1 141 149
M  V30 150 1 149 150
M  V30 151 1 150 151
M  V30 152 2 151 152
M  V30 153 1 150 153
M  V30 154 1 149 154
M  V30 155 1 150 155
M  V30 156 1 153 156
M  V30 157 1 153 157
M  V30 158 1 153 158
M  V30 159 1 151 159
M  V30 160 1 159 160
M  V30 161 1 160 161
M  V30 162 2 161 162
M  V30 163 1 160 163
M  V30 164 1 160 164
M  V30 165 1 163 165
M  V30 166 1 163 166
M  V30 167 1 163 167
M  V30 168 1 161 168
M  V30 169 1 168 169
M  V30 170 1 169 170
M  V30 171 2 170 171
M  V30 172 1 169 172
M  V30 173 1 168 173
M  V30 174 1 169 174
M  V30 175 1 172 175
M  V30 176 1 172 176
M  V30 177 1 172 177
M  V30 178 1 170 178
M  V30 179 1 178 179
M  V30 180 1 179 180
M  V30 181 2 180 181
M  V30 182 1 179 182
M  V30 183 1 178 183
M  V30 184 1 179 184
M  V30 185 1 182 185
M  V30 186 1 182 186
M  V30 187 1 182 187
M  V30 188 1 180 188
M  V30 189 1 188 189
M  V30 190 1 189 190
M  V30 191 2 190 191
M  V30 192 1 189 192
M  V30 193 1 188 193
M  V30 194 1 189 194
M  V30 195 1 192 195
M  V30 196 1 192 196
M  V30 197 1 192 197
M  V30 198 1 190 198
M  V30 199 1 198 199
M  V30 200 1 199 200
M  V30 201 2 200 201
M  V30 202 1 199 202
M  V30 203 1 198 203
M  V30 204 1 199 204
M  V30 205 1 202 205
M  V30 206 1 202 206
M  V30 207 1 202 207
M  V30 208 1 200 208
M  V30 209 1 208 209
M  V30 210 1 209 210
M  V30 211 2 210 211
M  V30 212 2 212 213
M  V30 213 1 212 214
M  V30 214 1 213 215
M  V30 215 2 214 216
M  V30 216 2 215 217
M  V30 217 1 216 217
M  V30 218 1 217 218
M  V30 219 1 105 219
M  V30 220 3 218 219
M  V30 221 1 214 220
M  V30 222 1 220 221
M  V30 223 1 209 222
M  V30 224 1 221 222
M  V30 225 1 208 223
M  V30 226 1 210 224
M  V30 227 1 224 225
M  V30 228 1 225 226
M  V30 229 2 226 227
M  V30 230 1 225 228
M  V30 231 1 224 229
M  V30 232 1 225 230
M  V30 233 1 228 231
M  V30 234 1 228 232
M  V30 235 1 228 233
M  V30 236 1 226 234
M  V30 237 1 234 235
M  V30 238 1 235 236
M  V30 239 2 236 237
M  V30 240 1 235 238
M  V30 241 1 235 239
M  V30 242 1 238 240
M  V30 243 1 238 241
M  V30 244 1 238 242
M  V30 245 1 236 243
M  V30 246 1 243 244
M  V30 247 1 244 245
M  V30 248 2 245 246
M  V30 249 1 244 247
M  V30 250 1 243 248
M  V30 251 1 244 249
M  V30 252 1 247 250
M  V30 253 1 247 251
M  V30 254 1 247 252
M  V30 255 1 245 253
M  V30 256 1 253 254
M  V30 257 1 254 255
M  V30 258 2 255 256
M  V30 259 1 254 257
M  V30 260 1 253 258
M  V30 261 1 254 259
M  V30 262 1 257 260
M  V30 263 1 257 261
M  V30 264 1 257 262
M  V30 265 1 255 263
M  V30 266 1 263 264
M  V30 267 1 264 265
M  V30 268 2 265 266
M  V30 269 1 264 267
M  V30 270 1 263 268
M  V30 271 1 264 269
M  V30 272 1 267 270
M  V30 273 1 267 271
M  V30 274 1 267 272
M  V30 275 1 265 273
M  V30 276 1 273 274
M  V30 277 1 274 275
M  V30 278 2 275 276
M  V30 279 1 274 277
M  V30 280 1 273 278
M  V30 281 1 274 279
M  V30 282 1 277 280
M  V30 283 1 277 281
M  V30 284 1 277 282
M  V30 285 1 275 283
M  V30 286 1 283 284
M  V30 287 1 284 285
M  V30 288 2 285 286
M  V30 289 1 284 287
M  V30 290 1 283 288
M  V30 291 1 284 289
M  V30 292 1 287 290
M  V30 293 1 287 291
M  V30 294 1 287 292
M  V30 295 1 285 293
M  V30 296 1 293 294
M  V30 297 1 294 295
M  V30 298 2 295 296
M  V30 299 2 295 297
M  V30 300 1 294 298
M  V30 301 1 293 299
M  V30 302 1 294 300
M  V30 303 1 298 301
M  V30 304 1 298 302
M  V30 305 1 298 303
M  V30 306 1 97 304
M  V30 307 1 97 305
M  V30 308 1 99 306
M  V30 309 1 100 307
M  V30 310 1 101 308
M  V30 311 1 103 309
M  V30 312 1 106 310
M  V30 313 1 106 311
M  V30 314 1 107 312
M  V30 315 1 107 313
M  V30 316 1 159 314
M  V30 317 1 212 315
M  V30 318 1 213 316
M  V30 319 1 215 317
M  V30 320 1 216 318
M  V30 321 1 220 319
M  V30 322 1 220 320
M  V30 323 1 221 321
M  V30 324 1 221 322
M  V30 325 1 222 323
M  V30 326 1 222 324
M  V30 327 1 234 325
M  V30 328 1 94 326
M  V30 329 1 326 327
M  V30 330 1 326 328
M  V30 331 1 326 329
M  V30 332 1 209 330
M  V30 333 1 330 331
M  V30 334 1 330 332
M  V30 335 1 330 333
M  V30 END BOND
M  V30 END CTAB
M  END
> <MOL Chiral Flag>
0


> <Index>
0

> <NAME>
Idealised ?-helix


$$$$
